[General]
network = artery.envmod.World

user-interface = Cmdenv
cmdenv-express-mode = true
cmdenv-autoflush = true
debug-on-errors = true
print-undisposed = true
**.cmdenv-log-level = off

**.scalar-recording = false
**.vector-recording = false
**.wlan[*].**.statistic-recording = false

# --- ALIGNED WITH SYBIL TABLE SCENARIO ---
sim-time-limit = 650s
warmup-period = 150s
*.traci.core.startTime = 145s
*.traci.core.version = -1
*.traci.core.ignoreShutdown = true
*.traci.launcher.typename = "PosixLauncher"
*.traci.launcher.seed = 23423
*.traci.launcher.sumocfg = "Sybil_Random4.sumocfg"

# --- THIS ENABLES THE SUMO GUI ---
*.traci.launcher.sumo = "sumo-gui"

*.traci.nodes.typename = "InsertionDelayNodeManager"
*.traci.mapper.typename = "traci.MultiTypeModuleMapper"

*.traci.ignorePersons = false
*.traci.mapper.basicNodeManager = "traci.nodes"
*.traci.mapper.vehicleTypes = xmldoc("vehicles.xml")
*.traci.nodes.destroyVehiclesOnCrash = true

*.withPhysicalEnvironment = true
*.physicalEnvironment.groundType = "FlatGround"

*.radioMedium.pathLossType = "Gemv2"
*.radioMedium.pathLoss.withSmallScaleVariations = false

**.identityRegistryModule = "idRegistry"

*.node[*].numRadios = 1

# --- ALIGNED WITH SYBIL TABLE SCENARIO ---
*.node[*].wlan[*].radio.transmitter.power = 20 mW

*.node[*].middleware.datetime = "2018-03-19 10:00:00"

*.node[*].middleware.services = xmldoc("services.xml")
**.mac.promiscuous = true
*.node[1..].pcapRecorder.outputFile = "results/Geral.pcapng"
*.node[*].wlan[*].mac.hcf.maxQueueSize = 1

*.node[0].middleware.services = xmldoc("sybil_services.xml")
*.node[0].vanetza[*].security.CertificateProvider = "Sybil"
*.node[0].pcapRecorder.outputFile = "results/node0_atacante.pcapng"

[Config no_gui]
*.traci.launcher.sumo = "sumo"